
**** 12/02/15 19:37:41 ****** PSpice Lite (October 2012) ****** ID# 10813 ****

 ** Profile: "SCHEMATIC1-run1"  [ C:\Users\dkhoury\Desktop\SourceTree-Masters\explorations\power\adjustablevoltageregulator-pspicefil


 ****     CIRCUIT DESCRIPTION


******************************************************************************




** Creating circuit file "run1.cir" 
** WARNING: THIS AUTOMATICALLY GENERATED FILE MAY BE OVERWRITTEN BY SUBSEQUENT SIMULATIONS

*Libraries: 
* Profile Libraries :
* Local Libraries :
.LIB "C:/Users/dkhoury/OneDrive/Documents/pspice_libraries/opamp.lib" 
.LIB "C:/Users/dkhoury/OneDrive/Documents/pspice_libraries/diode.lib" 
* From [PSPICE NETLIST] section of C:\Users\dkhoury\AppData\Roaming\SPB_16.6\cdssetup\OrCAD_PSpice/16.6.0/PSpice.ini file:
.lib "nomd.lib" 

*Analysis directives: 
.DC LIN PARAM RVAL 100 2k 100 
.STEP LIN PARAM RVAL 0 2k 100 
.OPTIONS ADVCONV
.PROBE64 V(alias(*)) I(alias(*)) W(alias(*)) D(alias(*)) NOISE(alias(*)) 
.INC "..\SCHEMATIC1.net" 



**** INCLUDING SCHEMATIC1.net ****
* source ADJUSTABLEVOLTAGEREGULATOR
V_V1         N00107 0 DC 9 AC 0 0
X_U1         N00107 N04014 N03179 LM317
D_D1         N03179 N00107 D1N4001 
R_R3         N03967 N04014 {{RVAL}*1+.001}
C_C1         N03967 N04014  1u  TC=0,0 
D_D6         N04014 N03179 D1N4001 
X_U2         N11052 N03967 N00107 N10981 N03967 LM675
R_R5         0 N11052  10k TC=0,0 
R_R6         N11052 N10981  30k TC=0,0 
V_V2         0 N10981 DC 5V AC 0 0
R_R7         N04014 N03179  252 TC=0,0 
C_C2         N03967 N03179  1u  TC=0,0 
.PARAM  name1=rval value1=100
--------------$
ERROR(ORPSIM-16152): Invalid number

**** RESUMING run1.cir ****
.END
