
**** 09/20/15 11:46:38 ****** PSpice Lite (October 2012) ****** ID# 10813 ****

 ** Profile: "SCHEMATIC1-sim0"  [ C:\Users\dkhoury\Desktop\power_ideas\LM317Prototype-PSpiceFiles\SCHEMATIC1\sim0.sim ] 


 ****     CIRCUIT DESCRIPTION


******************************************************************************




** Creating circuit file "sim0.cir" 
** WARNING: THIS AUTOMATICALLY GENERATED FILE MAY BE OVERWRITTEN BY SUBSEQUENT SIMULATIONS

*Libraries: 
* Profile Libraries :
* Local Libraries :
.LIB "C:/Users/dkhoury/OneDrive/Documents/pspice_libraries/opamp.lib" 
.LIB "C:/Users/dkhoury/OneDrive/Documents/pspice_libraries/diode.lib" 
* From [PSPICE NETLIST] section of C:\Users\dkhoury\AppData\Roaming\SPB_16.6\cdssetup\OrCAD_PSpice/16.6.0/PSpice.ini file:
.lib "nomd.lib" 

*Analysis directives: 
.DC LIN PARAM RVAR 200 5k 200 
.OPTIONS ADVCONV
.PROBE64 V(alias(*)) I(alias(*)) W(alias(*)) D(alias(*)) NOISE(alias(*)) 
.INC "..\SCHEMATIC1.net" 



**** INCLUDING SCHEMATIC1.net ****
* source LM317PROTOTYPE
X_U1         N00123 N00191 N00339 LM317
C_Cin         0 N00123  100n  TC=0,0 
C_C2         0 N00191  10u  TC=0,0 
V_V1         N00123 0 7Vdc
R_R2         N00191 N00339  240 TC=0,0 
D_D1         N00191 N00339 D1N4002 
C_Co         0 N00339  1u  TC=0,0 
D_D2         N00339 N00123 D1N4002 
R_R3         0 N00191 {RVAR*1+.001}

**** RESUMING sim0.cir ****
.END

ERROR(ORPSIM-15167): Undefined parameter: RVAR.
