
**** 12/02/15 20:28:49 ****** PSpice Lite (October 2012) ****** ID# 10813 ****

 ** Profile: "SCHEMATIC1-radj_sweep"  [ C:\Users\dkhoury\Desktop\SourceTree-Masters\explorations\power\AdjustableVoltageRegulator2-PS


 ****     CIRCUIT DESCRIPTION


******************************************************************************




** Creating circuit file "radj_sweep.cir" 
** WARNING: THIS AUTOMATICALLY GENERATED FILE MAY BE OVERWRITTEN BY SUBSEQUENT SIMULATIONS

*Libraries: 
* Profile Libraries :
* Local Libraries :
.LIB "C:/Users/dkhoury/OneDrive/Documents/pspice_libraries/diode.lib" 
.LIB "C:/Users/dkhoury/OneDrive/Documents/pspice_libraries/opamp.lib" 
* From [PSPICE NETLIST] section of C:\Users\dkhoury\AppData\Roaming\SPB_16.6\cdssetup\OrCAD_PSpice/16.6.0/PSpice.ini file:
.lib "nomd.lib" 

*Analysis directives: 
.DC LIN PARAM RVAL 0.001 1.5k 100 
.OPTIONS ADVCONV
.PROBE64 V(alias(*)) I(alias(*)) W(alias(*)) D(alias(*)) NOISE(alias(*)) 
.INC "..\SCHEMATIC1.net" 



**** INCLUDING SCHEMATIC1.net ****
* source ADJUSTABLEVOLTAGEREGULATOR2
V_V2         0 N15128 DC 5V AC 0 0
V_V1         N15010 0 DC 9 AC 0 0
R_R6         N15138 N15128  30k TC=0,0 
R_R5         0 N15138  10k TC=0,0 
X_U2         N15138 N15076 N15010 N15128 N15076 LM675
X_U1         N15010 N15455 N15483 LM317
D_D1         N15483 N15010 D1N4001 
D_D6         N15455 N15483 D1N4001 
R_R7         N15455 N15483  250 TC=0,0 
C_C2         N15076 N15483  1u  TC=0,0 
C_C1         N15076 N15455  1u  TC=0,0 
R_R8         N15076 N15455  {RVAL} TC=0,0 
.PARAM  rval=2k

**** RESUMING radj_sweep.cir ****
.END

**** 12/02/15 20:28:49 ****** PSpice Lite (October 2012) ****** ID# 10813 ****

 ** Profile: "SCHEMATIC1-radj_sweep"  [ C:\Users\dkhoury\Desktop\SourceTree-Masters\explorations\power\AdjustableVoltageRegulator2-PS


 ****     Diode MODEL PARAMETERS


******************************************************************************




               D1N4001         X_U2.dx         X_U2.dy         X_U1.DMOD       
          IS   14.110000E-09  800.000000E-18  800.000000E-18   30.000000E-15 
           N    1.984                                           1.701        
         IKF   94.81                                                         
          BV   75                                                            
         IBV   10.000000E-06                                                 
          RS     .03389                         1.000000E-03                 
          TT    5.700000E-06                                                 
         CJO   25.890000E-12                   10.000000E-12                 
          VJ     .3245                                                       
           M     .44                                                         


**** 12/02/15 20:28:49 ****** PSpice Lite (October 2012) ****** ID# 10813 ****

 ** Profile: "SCHEMATIC1-radj_sweep"  [ C:\Users\dkhoury\Desktop\SourceTree-Masters\explorations\power\AdjustableVoltageRegulator2-PS


 ****     BJT MODEL PARAMETERS


******************************************************************************




               X_U2.qx         X_U1.QPASSMOD   
               PNP             NPN             
       LEVEL    1               1            
          IS  800.000000E-18   30.000000E-15 
          BF  300              50            
          NF    1               1.701        
         VAF                    1.5          
          BR    1               1            
          NR    1               1            
         ISS    0               0            
          RE    0               0            
          RC    0               0            
         CJE    0               0            
         VJE     .75             .75         
         CJC    0               0            
         VJC     .75             .75         
         MJC     .33             .33         
        XCJC    1               1            
         CJS    0               0            
         VJS     .75             .75         
          KF    0               0            
          AF    1               1            
          CN    2.2             2.42         
           D     .52             .87         


**** 12/02/15 20:28:49 ****** PSpice Lite (October 2012) ****** ID# 10813 ****

 ** Profile: "SCHEMATIC1-radj_sweep"  [ C:\Users\dkhoury\Desktop\SourceTree-Masters\explorations\power\AdjustableVoltageRegulator2-PS


 ****     Junction FET MODEL PARAMETERS


******************************************************************************




               X_U1.JADJMOD    
               NJF             
         VTO   -1            
        BETA   50.000000E-06 



          JOB CONCLUDED

**** 12/02/15 20:28:49 ****** PSpice Lite (October 2012) ****** ID# 10813 ****

 ** Profile: "SCHEMATIC1-radj_sweep"  [ C:\Users\dkhoury\Desktop\SourceTree-Masters\explorations\power\AdjustableVoltageRegulator2-PS


 ****     JOB STATISTICS SUMMARY


******************************************************************************



  Total job time (using Solver 1)   =         .05
