
**** 02/20/16 14:41:12 ****** PSpice Lite (October 2012) ****** ID# 10813 ****

 ** Profile: "SCHEMATIC1-radj_sweep"  [ C:\Users\dkhoury\OneDrive\Documents\SourceTree-Masters\explorations\power\adjustablevoltagere


 ****     CIRCUIT DESCRIPTION


******************************************************************************




** Creating circuit file "radj_sweep.cir" 
** WARNING: THIS AUTOMATICALLY GENERATED FILE MAY BE OVERWRITTEN BY SUBSEQUENT SIMULATIONS

*Libraries: 
* Profile Libraries :
* Local Libraries :
.LIB "C:/Users/dkhoury/OneDrive/Documents/pspice_libraries/diode.lib" 
.LIB "C:/Users/dkhoury/OneDrive/Documents/pspice_libraries/opamp.lib" 
* From [PSPICE NETLIST] section of C:\Users\dkhoury\AppData\Roaming\SPB_16.6\cdssetup\OrCAD_PSpice/16.6.0/PSpice.ini file:
.lib "nomd.lib" 

*Analysis directives: 
.DC LIN PARAM RVAL 100 2k 20 
.OPTIONS ADVCONV
.PROBE64 V(alias(*)) I(alias(*)) W(alias(*)) D(alias(*)) NOISE(alias(*)) 
.INC "..\SCHEMATIC1.net" 



**** INCLUDING SCHEMATIC1.net ****
* source ADJUSTABLEVOLTAGEREGULATOR2
V_V2         0 N15128 DC 5V AC 0 0
V_V1         N17510 0 DC 12 AC 0 0
R_R6         N15138 N15128  30k TC=0,0 
R_R5         0 N15138  10k TC=0,0 
X_U2         N15138 N15076 N15048 N15128 N15076 LM675
X_U1         N15048 N15455 N15483 LM317
D_D1         N15483 N15048 D1N4001 
D_D6         N15455 N15483 D1N4001 
R_R7         N15455 N15483  250 TC=0,0 
C_C2         N15076 N15483  1u  TC=0,0 
C_C1         N15076 N15455  1u  TC=0,0 
R_R8         N15076 N15455  {RVAL} TC=0,0 
R_R9         0 N17517  7 Meg TC=0,0 
-------------------------$
ERROR(ORPSIM-16015): Unknown parameter.
R_R10         N17510 N17517  5 Meg TC=0,0 
-------------------------------$
ERROR(ORPSIM-16015): Unknown parameter.
X_U4         N17517 N15048 N17510 0 N15048 LM675
.PARAM  rval=2k

**** RESUMING radj_sweep.cir ****
.END
