
**** 02/20/16 14:18:13 ****** PSpice Lite (October 2012) ****** ID# 10813 ****

 ** Profile: "SCHEMATIC1-transient1"  [ C:\Users\dkhoury\OneDrive\Documents\SourceTree-Masters\explorations\power\AdjustableVoltageRe


 ****     CIRCUIT DESCRIPTION


******************************************************************************




** Creating circuit file "transient1.cir" 
** WARNING: THIS AUTOMATICALLY GENERATED FILE MAY BE OVERWRITTEN BY SUBSEQUENT SIMULATIONS

*Libraries: 
* Profile Libraries :
* Local Libraries :
.LIB "C:/Users/dkhoury/OneDrive/Documents/pspice_libraries/diode.lib" 
.LIB "C:/Users/dkhoury/OneDrive/Documents/pspice_libraries/opamp.lib" 
* From [PSPICE NETLIST] section of C:\Users\dkhoury\AppData\Roaming\SPB_16.6\cdssetup\OrCAD_PSpice/16.6.0/PSpice.ini file:
.lib "nomd.lib" 

*Analysis directives: 
.TRAN  0 1000ns 0 
.OPTIONS ADVCONV
.PROBE64 V(alias(*)) I(alias(*)) W(alias(*)) D(alias(*)) NOISE(alias(*)) 
.INC "..\SCHEMATIC1.net" 



**** INCLUDING SCHEMATIC1.net ****
* source ADJUSTABLEVOLTAGEREGULATOR2
V_V2         0 N15128 DC 5V AC 0 0
V_V1         N15010 0 DC 7.5 AC 0 0
R_R6         N15138 N15128  30k TC=0,0 
R_R5         0 N15138  10k TC=0,0 
X_U2         N15138 N15076 N15010 N15128 N15076 LM675
X_U1         N15010 N15455 N15483 LM317
D_D1         N15483 N15010 D1N4001 
D_D6         N15455 N15483 D1N4001 
R_R7         N15455 N15483  250 TC=0,0 
C_C2         N15076 N15483  1u  TC=0,0 
C_C1         N15076 N15455  1u  TC=0,0 
R_R8         N15076 N15455  2k TC=0,0 

**** RESUMING transient1.cir ****
.END

**** 02/20/16 14:18:13 ****** PSpice Lite (October 2012) ****** ID# 10813 ****

 ** Profile: "SCHEMATIC1-transient1"  [ C:\Users\dkhoury\OneDrive\Documents\SourceTree-Masters\explorations\power\AdjustableVoltageRe


 ****     Diode MODEL PARAMETERS


******************************************************************************




               D1N4001         X_U2.dx         X_U2.dy         X_U1.DMOD       
          IS   14.110000E-09  800.000000E-18  800.000000E-18   30.000000E-15 
           N    1.984                                           1.701        
         IKF   94.81                                                         
          BV   75                                                            
         IBV   10.000000E-06                                                 
          RS     .03389                         1.000000E-03                 
          TT    5.700000E-06                                                 
         CJO   25.890000E-12                   10.000000E-12                 
          VJ     .3245                                                       
           M     .44                                                         


**** 02/20/16 14:18:13 ****** PSpice Lite (October 2012) ****** ID# 10813 ****

 ** Profile: "SCHEMATIC1-transient1"  [ C:\Users\dkhoury\OneDrive\Documents\SourceTree-Masters\explorations\power\AdjustableVoltageRe


 ****     BJT MODEL PARAMETERS


******************************************************************************




               X_U2.qx         X_U1.QPASSMOD   
               PNP             NPN             
       LEVEL    1               1            
          IS  800.000000E-18   30.000000E-15 
          BF  300              50            
          NF    1               1.701        
         VAF                    1.5          
          BR    1               1            
          NR    1               1            
         ISS    0               0            
          RE    0               0            
          RC    0               0            
         CJE    0               0            
         VJE     .75             .75         
         CJC    0               0            
         VJC     .75             .75         
         MJC     .33             .33         
        XCJC    1               1            
         CJS    0               0            
         VJS     .75             .75         
          KF    0               0            
          AF    1               1            
          CN    2.2             2.42         
           D     .52             .87         


**** 02/20/16 14:18:13 ****** PSpice Lite (October 2012) ****** ID# 10813 ****

 ** Profile: "SCHEMATIC1-transient1"  [ C:\Users\dkhoury\OneDrive\Documents\SourceTree-Masters\explorations\power\AdjustableVoltageRe


 ****     Junction FET MODEL PARAMETERS


******************************************************************************




               X_U1.JADJMOD    
               NJF             
         VTO   -1            
        BETA   50.000000E-06 


**** 02/20/16 14:18:13 ****** PSpice Lite (October 2012) ****** ID# 10813 ****

 ** Profile: "SCHEMATIC1-transient1"  [ C:\Users\dkhoury\OneDrive\Documents\SourceTree-Masters\explorations\power\AdjustableVoltageRe


 ****     INITIAL TRANSIENT SOLUTION       TEMPERATURE =   27.000 DEG C


******************************************************************************



 NODE   VOLTAGE     NODE   VOLTAGE     NODE   VOLTAGE     NODE   VOLTAGE


(N15010)    7.5000 (N15076)   -1.2484 (N15128)   -5.0000 (N15138)   -1.2485     

(N15455)    5.0470 (N15483)    5.8215 (X_U1.4)    6.2970 (X_U1.5)    7.1170     

(X_U1.6)   15.3480 (X_U1.7)   15.4120 (X_U1.8)    7.2035 (X_U1.9)   53.3790     

(X_U2.6) 648.2E-06 (X_U2.7)   -1.2486 (X_U2.8)   -1.2486 (X_U2.9)    0.0000     

(X_U1.10)    7.1574                   (X_U1.11)   15.4880                       

(X_U1.12)   18.9620                   (X_U1.13)    6.3843                       

(X_U1.15)    7.1170                   (X_U2.10)    -.5099                       

(X_U2.11)   -4.8833                   (X_U2.12)   -4.8832                       

(X_U2.13)    -.6005                   (X_U2.14)    -.6006                       

(X_U2.53)    3.5000                   (X_U2.54)   -1.0000                       

(X_U2.90)   -3.1479                   (X_U2.91) 3000.0000                       

(X_U2.92)-3000.0000                   (X_U2.99)    1.2500                   




    VOLTAGE SOURCE CURRENTS
    NAME         CURRENT

    V_V2        -4.717E-03
    V_V1        -7.739E-03
    X_U2.vb      6.482E-09
    X_U2.vc      4.749E-12
    X_U2.ve     -1.213E-11
    X_U2.vlim   -3.148E-03
    X_U2.vlp    -3.003E-09
    X_U2.vln    -2.997E-09
    X_U1.VREF   -4.756E-09

    TOTAL POWER DISSIPATION   8.16E-02  WATTS


ERROR(ORPSIM-15138): Convergence problem in transient analysis at Time =  29.89E-12.
         Time step =  531.0E-21, minimum allowable step size =  1.000E-18

  These supply currents failed to converge:

    I(X_U1.ESC)               =   -3.337uA  \   -1.481uA
    I(X_U1.VREF)              =   -3.815uA  \   -1.907uA



  Last node voltages tried were:

 NODE   VOLTAGE     NODE   VOLTAGE     NODE   VOLTAGE     NODE   VOLTAGE


(N15010)    7.5000 (N15076)     .0164 (N15128)   -5.0000 (N15138)   -1.2470     

(N15455)     .0164 (N15483)     .0165 (X_U1.4)    1.2664 (X_U1.5)    1.2808     

(X_U1.6)     .8861 (X_U1.7)     .8830 (X_U1.8)     .1414 (X_U1.9)  125.0100     

(X_U2.6) 83.99E-06 (X_U2.7) 83.73E-06 (X_U2.8) 83.73E-06 (X_U2.9)    0.0000     

(X_U1.10)     .0165                   (X_U1.11)    6.9494                       

(X_U1.12)    8.2830                   (X_U1.13)    6.1714                       

(X_U1.15)    6.1712                   (X_U2.10)    -.3999                       

(X_U2.11)   -4.8834                   (X_U2.12)   -4.8832                       

(X_U2.13)    -.3999                   (X_U2.14)    -.5812                       

(X_U2.53)    3.5000                   (X_U2.54)   -1.0000                       

(X_U2.90) -326.2900                   (X_U2.91) 3000.0000                       

(X_U2.92)-3000.0000                   (X_U2.99)    1.2500                   


**** Interrupt ****
